Version 4
SHEET 1 8136 1524
WIRE 304 -240 80 -240
WIRE 80 -224 80 -240
WIRE 176 -176 128 -176
WIRE 288 -176 240 -176
WIRE 304 -144 304 -240
WIRE 320 -144 304 -144
WIRE 400 -144 384 -144
WIRE 128 -80 128 -176
WIRE 160 -80 128 -80
WIRE 288 -80 288 -176
WIRE 288 -80 240 -80
WIRE 304 -32 304 -144
WIRE 320 -32 304 -32
WIRE 400 -32 400 -144
WIRE 400 -32 384 -32
WIRE 400 -16 400 -32
WIRE 304 16 272 16
WIRE 2336 16 2336 -352
WIRE 2336 16 2320 16
WIRE 4000 16 3888 16
WIRE 4336 16 4064 16
WIRE 144 32 112 32
WIRE 2192 32 2064 32
WIRE 304 48 272 48
WIRE 2336 48 2320 48
WIRE 128 64 128 -80
WIRE 144 64 128 64
WIRE 2192 64 2160 64
WIRE -592 80 -656 80
WIRE -416 80 -528 80
WIRE -208 80 -352 80
WIRE -176 80 -208 80
WIRE 288 80 288 -80
WIRE 288 80 272 80
WIRE 432 80 288 80
WIRE 1968 80 1920 80
WIRE 2064 80 2064 32
WIRE 2064 80 2032 80
WIRE 2368 80 2320 80
WIRE 2544 80 2368 80
WIRE 5952 80 5952 -112
WIRE -656 96 -656 80
WIRE 304 96 304 48
WIRE 5712 96 5680 96
WIRE 5920 96 5712 96
WIRE 6304 96 6032 96
WIRE -208 112 -208 80
WIRE 1920 112 1920 80
WIRE 4256 112 4256 -80
WIRE 6032 112 6032 96
WIRE 6032 112 5984 112
WIRE 7680 112 7680 -80
WIRE 112 128 112 32
WIRE 320 128 304 128
WIRE 400 128 384 128
WIRE 3888 128 3888 16
WIRE 3888 128 3872 128
WIRE 3904 128 3888 128
WIRE 4016 128 3984 128
WIRE 4224 128 4016 128
WIRE 4336 128 4336 16
WIRE 4640 128 4336 128
WIRE 5920 128 5872 128
WIRE 7376 128 7344 128
WIRE 7648 128 7376 128
WIRE 8000 128 7760 128
WIRE 4336 144 4336 128
WIRE 4336 144 4288 144
WIRE 5712 144 5712 96
WIRE 7760 144 7760 128
WIRE 7760 144 7712 144
WIRE 4224 160 4176 160
WIRE 6032 160 6032 112
WIRE 7648 160 7584 160
WIRE 4016 176 4016 128
WIRE 7376 176 7376 128
WIRE -656 192 -656 176
WIRE 7760 192 7760 144
WIRE -208 208 -208 176
WIRE 1920 208 1920 192
WIRE 2064 208 2064 80
WIRE 2064 208 1920 208
WIRE 304 240 304 128
WIRE 320 240 304 240
WIRE 400 240 400 128
WIRE 400 240 384 240
WIRE 2160 240 2160 64
WIRE 2368 240 2368 80
WIRE 2368 240 2160 240
WIRE 5712 240 5712 208
WIRE 2064 272 2064 208
WIRE 5872 272 5872 128
WIRE 6032 272 6032 240
WIRE 6032 272 5872 272
WIRE 7376 272 7376 240
WIRE 4016 288 4016 240
WIRE 4176 288 4176 160
WIRE 4336 288 4336 144
WIRE 4336 288 4176 288
WIRE 4176 320 4176 288
WIRE 7584 320 7584 160
WIRE 7760 320 7760 272
WIRE 7760 320 7584 320
WIRE 5872 368 5872 272
WIRE 2064 400 2064 352
WIRE 7584 400 7584 320
WIRE 4176 432 4176 400
WIRE 2336 448 2336 48
WIRE 5872 464 5872 448
WIRE 7584 496 7584 480
WIRE 5952 512 5952 144
WIRE 4256 544 4256 176
WIRE 7680 544 7680 176
WIRE 128 976 128 928
WIRE 224 976 128 976
WIRE 128 1008 128 976
FLAG -208 208 0
FLAG 80 -144 0
FLAG 128 1008 0
FLAG 8000 128 output
IOPIN 8000 128 BiDir
FLAG 7584 496 0
FLAG 7376 272 0
FLAG 4176 432 0
FLAG 4016 288 0
FLAG 2064 400 0
FLAG 5872 464 0
FLAG 5712 240 0
FLAG 112 128 0
FLAG -656 192 0
FLAG 400 -16 0
SYMBOL cap -192 176 R180
WINDOW 0 24 56 Left 2
WINDOW 3 24 8 Left 2
SYMATTR InstName C7
SYMATTR Value 10p
SYMBOL res -80 64 R90
WINDOW 0 0 56 VBottom 2
WINDOW 3 32 56 VTop 2
SYMATTR InstName R10
SYMATTR Value 16.667
SYMBOL cap -528 64 R90
WINDOW 0 0 32 VBottom 2
WINDOW 3 32 32 VTop 2
SYMATTR InstName C10
SYMATTR Value 12.30p
SYMBOL voltage 80 -240 M0
WINDOW 0 24 96 Left 2
WINDOW 3 24 124 Left 2
WINDOW 123 0 0 Left 2
WINDOW 39 24 152 Left 2
SYMATTR InstName V5
SYMATTR Value 5
SYMBOL res 2080 368 R180
WINDOW 0 36 76 Left 2
WINDOW 3 36 40 Left 2
SYMATTR InstName R16
SYMATTR Value 200
SYMBOL cap 2032 64 R90
WINDOW 0 0 32 VBottom 2
WINDOW 3 32 32 VTop 2
SYMATTR InstName C11
SYMATTR Value 100p
SYMBOL res 3888 112 R90
WINDOW 0 0 56 VBottom 2
WINDOW 3 32 56 VTop 2
SYMATTR InstName R18
SYMATTR Value 100
SYMBOL res 4192 416 R180
WINDOW 0 36 76 Left 2
WINDOW 3 36 40 Left 2
SYMATTR InstName R19
SYMATTR Value 1k
SYMBOL cap 4064 0 R90
WINDOW 0 0 32 VBottom 2
WINDOW 3 32 32 VTop 2
SYMATTR InstName C12
SYMATTR Value 200p
SYMBOL res 4000 112 R90
WINDOW 0 0 56 VBottom 2
WINDOW 3 32 56 VTop 2
SYMATTR InstName R22
SYMATTR Value 100
SYMBOL cap 4000 176 R0
SYMATTR InstName C13
SYMATTR Value 69p
SYMBOL cap 7360 176 R0
SYMATTR InstName C14
SYMATTR Value 69p
SYMBOL res 5888 464 R180
WINDOW 0 36 76 Left 2
WINDOW 3 36 40 Left 2
SYMATTR InstName R23
SYMATTR Value 1k
SYMBOL cap 5696 144 R0
SYMATTR InstName C15
SYMATTR Value 69p
SYMBOL res 5696 80 R90
WINDOW 0 0 56 VBottom 2
WINDOW 3 32 56 VTop 2
SYMATTR InstName R25
SYMATTR Value 100
SYMBOL res 7360 112 R90
WINDOW 0 0 56 VBottom 2
WINDOW 3 32 56 VTop 2
SYMATTR InstName R26
SYMATTR Value 100
SYMBOL res 1904 208 M180
WINDOW 0 36 76 Left 2
WINDOW 3 36 40 Left 2
SYMATTR InstName R1
SYMATTR Value 29k
SYMBOL Opamps\\UniversalOpamp2 4256 144 M180
SYMATTR InstName U2
SYMATTR Value2 Avol=1Meg GBW=80Meg Slew=200Meg
SYMBOL Opamps\\UniversalOpamp2 5952 112 M180
SYMATTR InstName U3
SYMATTR Value2 Avol=1Meg GBW=80Meg Slew=200Meg
SYMBOL Opamps\\UniversalOpamp2 7680 144 M180
SYMATTR InstName U4
SYMATTR Value2 Avol=1Meg GBW=80Meg Slew=200Meg
SYMBOL res 7744 176 R0
SYMATTR InstName R2
SYMATTR Value 0
SYMBOL res 7568 496 M180
WINDOW 0 36 76 Left 2
WINDOW 3 36 40 Left 2
SYMATTR InstName R3
SYMATTR Value 1k
SYMBOL res 256 -96 R90
WINDOW 0 0 56 VBottom 2
WINDOW 3 32 56 VTop 2
SYMATTR InstName R4
SYMATTR Value 6.9k
SYMBOL cap 240 -192 R90
WINDOW 0 0 32 VBottom 2
WINDOW 3 32 32 VTop 2
SYMATTR InstName C1
SYMATTR Value 420p
SYMBOL AutoGenerated\\OPA855 208 48 R0
SYMATTR InstName U5
SYMBOL voltage -656 80 M0
WINDOW 0 24 96 Left 2
WINDOW 3 24 124 Left 2
WINDOW 123 24 152 Left 2
WINDOW 39 24 152 Left 2
SYMATTR InstName V4
SYMATTR Value PULSE(35 26.9 0 1e-9 300e-9 0 1e-6)
SYMBOL res 6016 144 R0
SYMATTR InstName R5
SYMATTR Value 0
SYMBOL cap -352 64 R90
WINDOW 0 0 32 VBottom 2
WINDOW 3 32 32 VTop 2
SYMATTR InstName C2
SYMATTR Value 10n
SYMBOL cap 384 -160 R90
WINDOW 0 0 32 VBottom 2
WINDOW 3 32 32 VTop 2
SYMATTR InstName C3
SYMATTR Value 6.8µ
SYMBOL cap 384 -48 R90
WINDOW 0 0 32 VBottom 2
WINDOW 3 32 32 VTop 2
SYMATTR InstName C4
SYMATTR Value 0.1µ
SYMBOL cap 384 256 M270
WINDOW 0 32 32 VTop 2
WINDOW 3 0 32 VBottom 2
SYMATTR InstName C5
SYMATTR Value 6.8µ
SYMBOL cap 384 144 M270
WINDOW 0 32 32 VTop 2
WINDOW 3 0 32 VBottom 2
SYMATTR InstName C6
SYMATTR Value 0.1µ
SYMBOL voltage 128 944 R180
WINDOW 0 24 96 Left 2
WINDOW 3 24 124 Left 2
WINDOW 123 0 0 Left 2
WINDOW 39 24 152 Left 2
SYMATTR InstName V6
SYMATTR Value 5
SYMBOL AutoGenerated\\OPA855 2256 48 R0
SYMATTR InstName U1
SYMBOL AutoGenerated\\ADA4841 4272 -208 R0
SYMATTR InstName U6
SYMBOL AutoGenerated\\ADA4841 5936 -240 R0
SYMATTR InstName U7
SYMBOL AutoGenerated\\ADA4841 7680 -192 R0
SYMATTR InstName U8
TEXT -840 248 Left 2 !.tran 0 10e-6 0
