Version 4
SHEET 1 8136 1524
WIRE 112 -224 -112 -224
WIRE -112 -208 -112 -224
WIRE -16 -160 -64 -160
WIRE 96 -160 48 -160
WIRE 112 -160 112 -224
WIRE 128 -160 112 -160
WIRE 208 -160 192 -160
WIRE -64 -64 -64 -160
WIRE -32 -64 -64 -64
WIRE 96 -64 96 -160
WIRE 96 -64 48 -64
WIRE 112 -48 112 -160
WIRE 128 -48 112 -48
WIRE 208 -48 208 -160
WIRE 208 -48 192 -48
WIRE 208 -32 208 -48
WIRE 112 32 112 -48
WIRE 112 32 80 32
WIRE 0 48 -80 48
WIRE 112 64 80 64
WIRE -400 80 -464 80
WIRE -304 80 -336 80
WIRE -208 80 -240 80
WIRE -176 80 -208 80
WIRE -64 80 -64 -64
WIRE -64 80 -96 80
WIRE 0 80 -64 80
WIRE -464 96 -464 80
WIRE 96 96 96 -64
WIRE 96 96 80 96
WIRE 480 96 96 96
WIRE -208 112 -208 80
WIRE 112 144 112 64
WIRE 128 144 112 144
WIRE 208 144 192 144
WIRE -464 192 -464 176
WIRE -208 208 -208 176
WIRE 112 256 112 144
WIRE 112 256 -112 256
WIRE 128 256 112 256
WIRE 208 256 208 144
WIRE 208 256 192 256
WIRE -112 272 -112 256
WIRE -112 368 -112 352
WIRE -80 368 -80 48
WIRE -80 368 -112 368
WIRE 208 368 208 256
WIRE 208 368 -80 368
WIRE -112 384 -112 368
FLAG -208 208 0
FLAG -112 -128 0
FLAG -464 192 0
FLAG 208 -32 0
FLAG -112 384 0
SYMBOL res -80 64 R90
WINDOW 0 0 56 VBottom 2
WINDOW 3 32 56 VTop 2
SYMATTR InstName R1
SYMATTR Value 420
SYMBOL cap -336 64 R90
WINDOW 0 0 32 VBottom 2
WINDOW 3 32 32 VTop 2
SYMATTR InstName C1
SYMATTR Value 2.30p
SYMBOL voltage -112 -224 M0
WINDOW 0 24 96 Left 2
WINDOW 3 24 124 Left 2
WINDOW 123 0 0 Left 2
WINDOW 39 24 152 Left 2
SYMATTR InstName V2
SYMATTR Value 5
SYMBOL res 64 -80 R90
WINDOW 0 0 56 VBottom 2
WINDOW 3 32 56 VTop 2
SYMATTR InstName R2
SYMATTR Value 69k
SYMBOL cap 48 -176 R90
WINDOW 0 0 32 VBottom 2
WINDOW 3 32 32 VTop 2
SYMATTR InstName C4
SYMATTR Value 420p
SYMBOL voltage -464 80 M0
WINDOW 0 24 96 Left 2
WINDOW 3 24 124 Left 2
WINDOW 123 24 152 Left 2
WINDOW 39 24 152 Left 2
SYMATTR InstName V1
SYMATTR Value PULSE(35 26.9 0 1e-9 300e-9 0 1e-6)
SYMBOL cap -240 64 R90
WINDOW 0 0 32 VBottom 2
WINDOW 3 32 32 VTop 2
SYMATTR InstName C2
SYMATTR Value 10n
SYMBOL cap 192 -64 R90
WINDOW 0 0 32 VBottom 2
WINDOW 3 32 32 VTop 2
SYMATTR InstName C6
SYMATTR Value 0.1µ
SYMBOL cap 192 160 M270
WINDOW 0 32 32 VTop 2
WINDOW 3 0 32 VBottom 2
SYMATTR InstName C7
SYMATTR Value 0.1µ
SYMBOL polcap 128 -176 M90
WINDOW 0 0 32 VBottom 2
WINDOW 3 32 32 VTop 2
SYMATTR InstName C5
SYMATTR Value 6.8µ
SYMBOL polcap 192 240 R90
WINDOW 0 0 32 VBottom 2
WINDOW 3 32 32 VTop 2
SYMATTR InstName C8
SYMATTR Value 6.8µ
SYMBOL voltage -112 368 R180
WINDOW 0 24 96 Left 2
WINDOW 3 24 124 Left 2
WINDOW 123 0 0 Left 2
WINDOW 39 24 152 Left 2
SYMATTR InstName V3
SYMATTR Value 5
SYMBOL AutoGenerated\\MAX4225 32 64 R0
SYMATTR InstName U1
TEXT -648 248 Left 2 !.tran 0 1e-6 0
