Version 4
SHEET 1 6580 1524
WIRE -528 -272 -720 -272
WIRE 0 -272 -528 -272
WIRE 3296 -272 0 -272
WIRE -672 -192 -736 -192
WIRE -544 -192 -608 -192
WIRE -736 -96 -736 -192
WIRE -688 -96 -736 -96
WIRE -544 -96 -544 -192
WIRE -544 -96 -608 -96
WIRE 1296 -96 576 -96
WIRE 2032 -96 1296 -96
WIRE 2800 -96 2032 -96
WIRE 3376 -96 2800 -96
WIRE 1040 0 928 0
WIRE 1376 0 1104 0
WIRE -704 48 -752 48
WIRE -560 48 -576 48
WIRE -1392 80 -1440 80
WIRE -896 80 -1328 80
WIRE -864 80 -896 80
WIRE -736 80 -736 -96
WIRE -736 80 -784 80
WIRE -704 80 -736 80
WIRE -544 80 -544 -96
WIRE -544 80 -576 80
WIRE -1520 96 -1520 80
WIRE -1440 96 -1440 80
WIRE 576 96 576 -96
WIRE 1296 96 1296 -96
WIRE 2032 96 2032 -96
WIRE 2800 96 2800 -96
WIRE -896 112 -896 80
WIRE -720 112 -720 -272
WIRE -704 112 -720 112
WIRE -528 112 -528 -272
WIRE -528 112 -576 112
WIRE 256 112 208 112
WIRE 352 112 320 112
WIRE 544 112 352 112
WIRE 832 112 656 112
WIRE 928 112 928 0
WIRE 928 112 912 112
WIRE 944 112 928 112
WIRE 1056 112 1024 112
WIRE 1264 112 1056 112
WIRE 1376 112 1376 0
WIRE 1680 112 1376 112
WIRE 1792 112 1760 112
WIRE 2000 112 1792 112
WIRE 2384 112 2112 112
WIRE 2496 112 2464 112
WIRE 2768 112 2496 112
WIRE 3120 112 2880 112
WIRE -752 128 -752 48
WIRE 656 128 656 112
WIRE 656 128 608 128
WIRE 1376 128 1376 112
WIRE 1376 128 1328 128
WIRE 2112 128 2112 112
WIRE 2112 128 2064 128
WIRE 2880 128 2880 112
WIRE 2880 128 2832 128
WIRE 208 144 208 112
WIRE 544 144 496 144
WIRE 1264 144 1216 144
WIRE 2000 144 1952 144
WIRE 2768 144 2704 144
WIRE 1056 160 1056 112
WIRE 1792 160 1792 112
WIRE 2496 160 2496 112
WIRE 2880 176 2880 128
WIRE -1520 192 -1520 176
WIRE -1440 192 -1440 176
WIRE -1440 192 -1520 192
WIRE -1520 208 -1520 192
WIRE -896 208 -896 176
WIRE -752 224 -752 208
WIRE -560 240 -560 48
WIRE -144 240 -560 240
WIRE 208 240 208 224
WIRE 352 240 352 112
WIRE 352 240 208 240
WIRE -144 256 -144 240
WIRE 1792 256 1792 224
WIRE 2496 256 2496 224
WIRE 496 272 496 144
WIRE 656 272 656 128
WIRE 656 272 496 272
WIRE 1056 272 1056 224
WIRE 1216 272 1216 144
WIRE 1376 272 1376 128
WIRE 1376 272 1216 272
WIRE 1952 288 1952 144
WIRE 2112 288 2112 128
WIRE 2112 288 1952 288
WIRE 352 304 352 240
WIRE 496 304 496 272
WIRE 1216 304 1216 272
WIRE 2704 304 2704 144
WIRE 2880 304 2880 256
WIRE 2880 304 2704 304
WIRE -144 352 -144 336
WIRE 32 352 -144 352
WIRE 1952 384 1952 288
WIRE 2704 384 2704 304
WIRE -144 416 -144 352
WIRE 1216 416 1216 384
WIRE 352 432 352 384
WIRE 496 432 496 384
WIRE 1952 480 1952 464
WIRE 2704 480 2704 464
WIRE 576 528 576 160
WIRE 1296 528 1296 160
WIRE 1296 528 576 528
WIRE 2032 528 2032 160
WIRE 2032 528 1296 528
WIRE 2800 528 2800 160
WIRE 2800 528 2032 528
WIRE 3296 528 3296 -272
WIRE 3296 528 2800 528
WIRE 32 672 32 352
WIRE 3376 672 3376 -96
WIRE 3376 672 32 672
FLAG -896 208 0
FLAG 0 -192 0
FLAG -48 224 0
FLAG -144 416 0
FLAG 3120 112 output
IOPIN 3120 112 BiDir
FLAG 2704 480 0
FLAG 2496 256 0
FLAG 1216 416 0
FLAG 1056 272 0
FLAG 496 432 0
FLAG 352 432 0
FLAG 1952 480 0
FLAG 1792 256 0
FLAG -1520 208 0
FLAG -752 224 0
SYMBOL cap -880 176 R180
WINDOW 0 24 56 Left 2
WINDOW 3 24 8 Left 2
SYMATTR InstName C7
SYMATTR Value 10pF
SYMBOL res -768 64 R90
WINDOW 0 0 56 VBottom 2
WINDOW 3 32 56 VTop 2
SYMATTR InstName R10
SYMATTR Value 13
SYMBOL voltage -1440 80 R0
WINDOW 0 24 96 Left 2
WINDOW 3 24 124 Left 2
WINDOW 123 24 152 Left 2
WINDOW 39 24 152 Left 2
SYMATTR InstName V3
SYMATTR Value PULSE(35 26.9 0 3e-9 300e-9 0 1e-6)
SYMBOL cap -1328 64 R90
WINDOW 0 0 32 VBottom 2
WINDOW 3 32 32 VTop 2
SYMATTR InstName C10
SYMATTR Value 230pF
SYMBOL voltage 0 -288 R0
WINDOW 0 24 96 Left 2
WINDOW 3 24 124 Left 2
WINDOW 123 0 0 Left 2
WINDOW 39 24 152 Left 2
SYMATTR InstName V5
SYMATTR Value 5
SYMBOL voltage -144 352 R180
WINDOW 0 24 96 Left 2
WINDOW 3 24 124 Left 2
WINDOW 123 0 0 Left 2
WINDOW 39 24 152 Left 2
SYMATTR InstName V1
SYMATTR Value 5
SYMBOL res 368 400 R180
WINDOW 0 36 76 Left 2
WINDOW 3 36 40 Left 2
SYMATTR InstName R16
SYMATTR Value 200
SYMBOL res 512 400 R180
WINDOW 0 36 76 Left 2
WINDOW 3 36 40 Left 2
SYMATTR InstName R17
SYMATTR Value 1k
SYMBOL cap 320 96 R90
WINDOW 0 0 32 VBottom 2
WINDOW 3 32 32 VTop 2
SYMATTR InstName C11
SYMATTR Value 100pF
SYMBOL res 928 96 R90
WINDOW 0 0 56 VBottom 2
WINDOW 3 32 56 VTop 2
SYMATTR InstName R18
SYMATTR Value 100
SYMBOL res 1232 400 R180
WINDOW 0 36 76 Left 2
WINDOW 3 36 40 Left 2
SYMATTR InstName R19
SYMATTR Value 1k
SYMBOL res 2640 480 R180
WINDOW 0 36 76 Left 2
WINDOW 3 36 40 Left 2
SYMATTR InstName R20
SYMATTR Value 100
SYMBOL cap 1104 -16 R90
WINDOW 0 0 32 VBottom 2
WINDOW 3 32 32 VTop 2
SYMATTR InstName C12
SYMATTR Value 200pF
SYMBOL res 1040 96 R90
WINDOW 0 0 56 VBottom 2
WINDOW 3 32 56 VTop 2
SYMATTR InstName R22
SYMATTR Value 100
SYMBOL cap 1040 160 R0
SYMATTR InstName C13
SYMATTR Value 69pF
SYMBOL cap 2480 160 R0
SYMATTR InstName C14
SYMATTR Value 69pF
SYMBOL res 1968 480 R180
WINDOW 0 36 76 Left 2
WINDOW 3 36 40 Left 2
SYMATTR InstName R23
SYMATTR Value 1k
SYMBOL cap 1776 160 R0
SYMATTR InstName C15
SYMATTR Value 69pF
SYMBOL res 1776 96 R90
WINDOW 0 0 56 VBottom 2
WINDOW 3 32 56 VTop 2
SYMATTR InstName R25
SYMATTR Value 100
SYMBOL res 2480 96 R90
WINDOW 0 0 56 VBottom 2
WINDOW 3 32 56 VTop 2
SYMATTR InstName R26
SYMATTR Value 100
SYMBOL res 224 240 R180
WINDOW 0 36 76 Left 2
WINDOW 3 36 40 Left 2
SYMATTR InstName R1
SYMATTR Value 29k
SYMBOL res 2208 256 M180
WINDOW 0 36 76 Left 2
WINDOW 3 36 40 Left 2
SYMATTR InstName R5
SYMATTR Value 1k
SYMBOL Opamps\\UniversalOpamp2 576 128 M180
SYMATTR InstName U1
SYMATTR Value2 Avol=1Meg GBW=80Meg Slew=200Meg
SYMBOL Opamps\\UniversalOpamp2 1296 128 M180
SYMATTR InstName U2
SYMATTR Value2 Avol=1Meg GBW=80Meg Slew=200Meg
SYMBOL Opamps\\UniversalOpamp2 2032 128 M180
SYMATTR InstName U3
SYMATTR Value2 Avol=1Meg GBW=80Meg Slew=200Meg
SYMBOL Opamps\\UniversalOpamp2 2800 128 M180
SYMATTR InstName U4
SYMATTR Value2 Avol=1Meg GBW=80Meg Slew=200Meg
SYMBOL res 2864 160 R0
SYMATTR InstName R2
SYMATTR Value 1.25k
SYMBOL res 2688 480 M180
WINDOW 0 36 76 Left 2
WINDOW 3 36 40 Left 2
SYMATTR InstName R3
SYMATTR Value 1k
SYMBOL current -1520 96 M0
WINDOW 123 0 0 Left 0
WINDOW 39 0 0 Left 0
SYMATTR InstName I2
SYMATTR Value PULSE(0 180e-3 0 5e-9 300e-9 0 1e-6)
SYMBOL voltage -752 112 R0
WINDOW 0 24 96 Left 2
WINDOW 3 24 124 Left 2
WINDOW 123 0 0 Left 2
WINDOW 39 24 152 Left 2
SYMATTR InstName V2
SYMATTR Value 0
SYMBOL AutoGenerated\\OPA855 -640 80 R0
SYMATTR InstName U6
SYMBOL res -592 -112 R90
WINDOW 0 0 56 VBottom 2
WINDOW 3 32 56 VTop 2
SYMATTR InstName R4
SYMATTR Value 6.9k
SYMBOL cap -608 -208 R90
WINDOW 0 0 32 VBottom 2
WINDOW 3 32 32 VTop 2
SYMATTR InstName C1
SYMATTR Value 420pF
TEXT -1800 128 Left 2 !.tran 0 3e-6 0
