Version 4
SHEET 1 6580 1524
WIRE 0 -288 -560 -288
WIRE 3296 -288 0 -288
WIRE -672 -208 -704 -208
WIRE -576 -208 -608 -208
WIRE -704 -112 -704 -208
WIRE -704 -112 -736 -112
WIRE -688 -112 -704 -112
WIRE -576 -112 -576 -208
WIRE -576 -112 -608 -112
WIRE -544 -112 -576 -112
WIRE 1296 -112 576 -112
WIRE 2032 -112 1296 -112
WIRE 2800 -112 2032 -112
WIRE 3376 -112 2800 -112
WIRE 1040 -16 928 -16
WIRE 1376 -16 1104 -16
WIRE -560 32 -560 -288
WIRE -560 32 -576 32
WIRE -704 48 -720 48
WIRE -560 64 -576 64
WIRE -1392 80 -1440 80
WIRE -896 80 -1328 80
WIRE -864 80 -896 80
WIRE -736 80 -736 -112
WIRE -736 80 -784 80
WIRE -704 80 -736 80
WIRE 576 80 576 -112
WIRE 1296 80 1296 -112
WIRE 2032 80 2032 -112
WIRE 2800 80 2800 -112
WIRE -1440 96 -1440 80
WIRE -544 96 -544 -112
WIRE -544 96 -576 96
WIRE 208 96 -544 96
WIRE 256 96 208 96
WIRE 352 96 320 96
WIRE 544 96 352 96
WIRE 832 96 656 96
WIRE 928 96 928 -16
WIRE 928 96 912 96
WIRE 944 96 928 96
WIRE 1056 96 1024 96
WIRE 1264 96 1056 96
WIRE 1376 96 1376 -16
WIRE 1680 96 1376 96
WIRE 1792 96 1760 96
WIRE 2000 96 1792 96
WIRE 2384 96 2112 96
WIRE 2496 96 2464 96
WIRE 2768 96 2496 96
WIRE 3120 96 2880 96
WIRE -896 112 -896 80
WIRE 656 112 656 96
WIRE 656 112 608 112
WIRE 1376 112 1376 96
WIRE 1376 112 1328 112
WIRE 2112 112 2112 96
WIRE 2112 112 2064 112
WIRE 2880 112 2880 96
WIRE 2880 112 2832 112
WIRE -720 128 -720 48
WIRE 208 128 208 96
WIRE 544 128 496 128
WIRE 1264 128 1216 128
WIRE 2000 128 1952 128
WIRE 2768 128 2704 128
WIRE 1056 144 1056 96
WIRE 1792 144 1792 96
WIRE 2496 144 2496 96
WIRE 2880 160 2880 112
WIRE -1440 192 -1440 176
WIRE -896 208 -896 176
WIRE -720 224 -720 208
WIRE 208 224 208 208
WIRE 352 224 352 96
WIRE 352 224 208 224
WIRE 1792 240 1792 208
WIRE 2496 240 2496 208
WIRE 496 256 496 128
WIRE 656 256 656 112
WIRE 656 256 496 256
WIRE 1056 256 1056 208
WIRE 1216 256 1216 128
WIRE 1376 256 1376 112
WIRE 1376 256 1216 256
WIRE 1952 272 1952 128
WIRE 2112 272 2112 112
WIRE 2112 272 1952 272
WIRE 352 288 352 224
WIRE 496 288 496 256
WIRE 1216 288 1216 256
WIRE 2704 288 2704 128
WIRE 2880 288 2880 240
WIRE 2880 288 2704 288
WIRE 1952 368 1952 272
WIRE 2704 368 2704 288
WIRE 1216 400 1216 368
WIRE 352 416 352 368
WIRE 496 416 496 368
WIRE 1952 464 1952 448
WIRE 2704 464 2704 448
WIRE 576 512 576 144
WIRE 1296 512 1296 144
WIRE 1296 512 576 512
WIRE 2032 512 2032 144
WIRE 2032 512 1296 512
WIRE 2800 512 2800 144
WIRE 2800 512 2032 512
WIRE 3296 512 3296 -288
WIRE 3296 512 2800 512
WIRE -560 544 -560 64
WIRE -560 656 -560 624
WIRE 3376 656 3376 -112
WIRE 3376 656 -560 656
WIRE -560 704 -560 656
FLAG -896 208 0
FLAG 0 -208 0
FLAG -560 704 0
FLAG 3120 96 output
IOPIN 3120 96 BiDir
FLAG 2704 464 0
FLAG 2496 240 0
FLAG 1216 400 0
FLAG 1056 256 0
FLAG 496 416 0
FLAG 352 416 0
FLAG 1952 464 0
FLAG 1792 240 0
FLAG -1440 192 0
FLAG -720 224 0
SYMBOL cap -880 176 R180
WINDOW 0 24 56 Left 2
WINDOW 3 24 8 Left 2
SYMATTR InstName C7
SYMATTR Value 10pF
SYMBOL res -768 64 R90
WINDOW 0 0 56 VBottom 2
WINDOW 3 32 56 VTop 2
SYMATTR InstName R10
SYMATTR Value 13
SYMBOL voltage -1440 80 R0
WINDOW 0 24 96 Left 2
WINDOW 3 24 124 Left 2
WINDOW 123 24 152 Left 2
WINDOW 39 24 152 Left 2
SYMATTR InstName V3
SYMATTR Value PULSE(35 26.9 0 3e-9 300e-9 0 1e-6)
SYMBOL cap -1328 64 R90
WINDOW 0 0 32 VBottom 2
WINDOW 3 32 32 VTop 2
SYMATTR InstName C10
SYMATTR Value 230pF
SYMBOL voltage 0 -304 R0
WINDOW 0 24 96 Left 2
WINDOW 3 24 124 Left 2
WINDOW 123 0 0 Left 2
WINDOW 39 24 152 Left 2
SYMATTR InstName V5
SYMATTR Value 5
SYMBOL voltage -560 640 R180
WINDOW 0 24 96 Left 2
WINDOW 3 24 124 Left 2
WINDOW 123 0 0 Left 2
WINDOW 39 24 152 Left 2
SYMATTR InstName V1
SYMATTR Value 5
SYMBOL res 368 384 R180
WINDOW 0 36 76 Left 2
WINDOW 3 36 40 Left 2
SYMATTR InstName R16
SYMATTR Value 200
SYMBOL res 512 384 R180
WINDOW 0 36 76 Left 2
WINDOW 3 36 40 Left 2
SYMATTR InstName R17
SYMATTR Value 1k
SYMBOL cap 320 80 R90
WINDOW 0 0 32 VBottom 2
WINDOW 3 32 32 VTop 2
SYMATTR InstName C11
SYMATTR Value 100pF
SYMBOL res 928 80 R90
WINDOW 0 0 56 VBottom 2
WINDOW 3 32 56 VTop 2
SYMATTR InstName R18
SYMATTR Value 100
SYMBOL res 1232 384 R180
WINDOW 0 36 76 Left 2
WINDOW 3 36 40 Left 2
SYMATTR InstName R19
SYMATTR Value 1k
SYMBOL res 2640 464 R180
WINDOW 0 36 76 Left 2
WINDOW 3 36 40 Left 2
SYMATTR InstName R20
SYMATTR Value 100
SYMBOL cap 1104 -32 R90
WINDOW 0 0 32 VBottom 2
WINDOW 3 32 32 VTop 2
SYMATTR InstName C12
SYMATTR Value 200pF
SYMBOL res 1040 80 R90
WINDOW 0 0 56 VBottom 2
WINDOW 3 32 56 VTop 2
SYMATTR InstName R22
SYMATTR Value 100
SYMBOL cap 1040 144 R0
SYMATTR InstName C13
SYMATTR Value 69pF
SYMBOL cap 2480 144 R0
SYMATTR InstName C14
SYMATTR Value 69pF
SYMBOL res 1968 464 R180
WINDOW 0 36 76 Left 2
WINDOW 3 36 40 Left 2
SYMATTR InstName R23
SYMATTR Value 1k
SYMBOL cap 1776 144 R0
SYMATTR InstName C15
SYMATTR Value 69pF
SYMBOL res 1776 80 R90
WINDOW 0 0 56 VBottom 2
WINDOW 3 32 56 VTop 2
SYMATTR InstName R25
SYMATTR Value 100
SYMBOL res 2480 80 R90
WINDOW 0 0 56 VBottom 2
WINDOW 3 32 56 VTop 2
SYMATTR InstName R26
SYMATTR Value 100
SYMBOL res 224 224 R180
WINDOW 0 36 76 Left 2
WINDOW 3 36 40 Left 2
SYMATTR InstName R1
SYMATTR Value 29k
SYMBOL res 2208 240 M180
WINDOW 0 36 76 Left 2
WINDOW 3 36 40 Left 2
SYMATTR InstName R5
SYMATTR Value 1k
SYMBOL Opamps\\UniversalOpamp2 576 112 M180
SYMATTR InstName U1
SYMATTR Value2 Avol=1Meg GBW=80Meg Slew=200Meg
SYMBOL Opamps\\UniversalOpamp2 1296 112 M180
SYMATTR InstName U2
SYMATTR Value2 Avol=1Meg GBW=80Meg Slew=200Meg
SYMBOL Opamps\\UniversalOpamp2 2032 112 M180
SYMATTR InstName U3
SYMATTR Value2 Avol=1Meg GBW=80Meg Slew=200Meg
SYMBOL Opamps\\UniversalOpamp2 2800 112 M180
SYMATTR InstName U4
SYMATTR Value2 Avol=1Meg GBW=80Meg Slew=200Meg
SYMBOL res 2864 144 R0
SYMATTR InstName R2
SYMATTR Value 1.25k
SYMBOL res 2688 464 M180
WINDOW 0 36 76 Left 2
WINDOW 3 36 40 Left 2
SYMATTR InstName R3
SYMATTR Value 1k
SYMBOL voltage -720 112 R0
WINDOW 0 24 96 Left 2
WINDOW 3 24 124 Left 2
WINDOW 123 0 0 Left 2
WINDOW 39 24 152 Left 2
SYMATTR InstName V2
SYMATTR Value 0
SYMBOL AutoGenerated\\OPA855 -640 64 R0
SYMATTR InstName U6
SYMBOL res -592 -128 R90
WINDOW 0 0 56 VBottom 2
WINDOW 3 32 56 VTop 2
SYMATTR InstName R4
SYMATTR Value 6.9k
SYMBOL cap -608 -224 R90
WINDOW 0 0 32 VBottom 2
WINDOW 3 32 32 VTop 2
SYMATTR InstName C1
SYMATTR Value 420pF
TEXT -1416 232 Left 2 !.tran 0 3e-6 0
