Version 4
SHEET 1 880 772
WIRE -80 96 -112 96
WIRE -112 128 -112 96
WIRE 320 128 -112 128
WIRE -112 144 -112 128
WIRE -240 160 -272 160
WIRE -144 160 -240 160
WIRE 320 160 320 128
WIRE -240 176 -240 160
WIRE -64 176 -80 176
WIRE -48 176 -64 176
WIRE 48 176 16 176
WIRE 176 176 48 176
WIRE 288 176 176 176
WIRE -144 192 -160 192
WIRE 368 192 352 192
WIRE 400 192 368 192
WIRE 416 192 400 192
WIRE 512 192 496 192
WIRE 176 208 176 176
WIRE 288 208 272 208
WIRE -160 224 -160 192
WIRE -64 224 -64 176
WIRE -64 224 -160 224
WIRE 272 240 272 208
WIRE 368 240 368 192
WIRE 368 240 272 240
WIRE -240 272 -240 256
WIRE 176 304 176 288
WIRE -112 336 -112 208
WIRE 144 336 -112 336
WIRE 320 336 320 224
WIRE 320 336 144 336
WIRE 480 336 480 320
WIRE 48 368 48 176
WIRE 144 368 144 336
WIRE 176 368 144 368
WIRE 0 432 -16 432
WIRE 480 432 480 416
WIRE 400 464 400 192
WIRE 448 464 400 464
WIRE 592 464 528 464
WIRE -16 480 -16 432
WIRE 48 480 48 464
WIRE 448 496 400 496
WIRE 400 512 400 496
WIRE 480 544 480 528
WIRE 496 544 496 528
WIRE 496 544 480 544
WIRE 464 560 464 528
WIRE 496 560 496 544
WIRE -16 592 -16 560
WIRE 464 656 464 640
WIRE -16 688 -16 672
WIRE 592 688 592 464
WIRE 592 688 -16 688
FLAG -240 272 0
FLAG -272 160 input
IOPIN -272 160 In
FLAG 176 304 0
FLAG 48 480 0
FLAG 464 656 0
FLAG 512 192 output
IOPIN 512 192 Out
FLAG 400 512 0
FLAG 480 320 0
FLAG 496 560 0
FLAG 176 368 +Vsupply
IOPIN 176 368 Out
FLAG -80 96 -Vsupply
IOPIN -80 96 Out
SYMBOL Opamps\\UniversalOpamp2 -112 176 M180
SYMATTR InstName U1
SYMBOL Opamps\\UniversalOpamp2 320 192 M180
SYMATTR InstName U2
SYMBOL res -256 160 R0
SYMATTR InstName R1
SYMATTR Value 10k
SYMBOL res 160 192 R0
SYMATTR InstName R3
SYMATTR Value 100k
SYMBOL cap 16 160 R90
WINDOW 0 0 32 VBottom 2
WINDOW 3 32 32 VTop 2
SYMATTR InstName C1
SYMATTR Value .22µF
SYMBOL voltage 464 656 R180
WINDOW 0 24 96 Left 2
WINDOW 3 24 16 Left 2
SYMATTR InstName V2
SYMATTR Value 5
SYMBOL njf 0 368 R0
SYMATTR InstName J1
SYMATTR Value 2N5484
SYMBOL Comparators\\LT1016 480 416 R0
SYMATTR InstName U3
SYMBOL voltage 480 432 R180
WINDOW 0 24 96 Left 2
WINDOW 3 24 16 Left 2
SYMATTR InstName V1
SYMATTR Value 5
SYMBOL voltage -16 688 R180
WINDOW 0 24 96 Left 2
WINDOW 3 24 16 Left 2
WINDOW 123 0 0 Left 0
WINDOW 39 0 0 Left 0
SYMATTR InstName V3
SYMATTR Value 2.5
SYMBOL res -32 464 R0
SYMATTR InstName R2
SYMATTR Value 500
SYMBOL res 512 176 R90
WINDOW 0 0 56 VBottom 2
WINDOW 3 32 56 VTop 2
SYMATTR InstName R4
SYMATTR Value 47
